Circuit: * C:\Users\filim\Desktop\An 4\Surse\proiect\ProiectFinalYes\Draft1.asc

Direct Newton iteration for .op point succeeded.
Heightened Def Con from 0.00109601 to 0.00109601
Heightened Def Con from 0.00109601 to 0.00109602

Date: Tue Mar 22 19:47:58 2022
Total elapsed time: 2.490 seconds.

tnom = 27
temp = 27
method = modified trap
totiter = 266142
traniter = 266121
tranpoints = 94705
accept = 70287
rejected = 24420
matrix size = 25
fillins = 23
solver = Normal
Matrix Compiler1: 2.84 KB object code size  0.5/0.4/[0.2]
Matrix Compiler2: off  [0.2]/0.5/0.3

