Circuit: * D:\Facultate\Anul IV\Sem1.1\Surse\Proiect\Draft2.asc

WARNING: Specified period is not longer than the sum of Trise, Tfall, and Ton for v1.  Increasing period to 0.02
Limiting fall time of source v1 to 4.16334e-018
Direct Newton iteration for .op point succeeded.

Date: Sun Nov 20 00:40:02 2022
Total elapsed time: 0.095 seconds.

tnom = 27
temp = 27
method = modified trap
totiter = 2116
traniter = 2084
tranpoints = 1043
accept = 1042
rejected = 1
matrix size = 11
fillins = 0
solver = Normal
Matrix Compiler1:      45 opcodes  0.1/[0.1]/0.1
Matrix Compiler2: off  [0.1]/0.1/0.1

