Circuit: * C:\Users\chita\OneDrive\Desktop\New folder\lab3_circuits.asc

Direct Newton iteration for .op point succeeded.

Date: Sat Nov 19 22:19:04 2022
Total elapsed time: 0.058 seconds.

tnom = 27
temp = 27
method = modified trap
totiter = 2122
traniter = 2082
tranpoints = 1042
accept = 1042
rejected = 0
matrix size = 27
fillins = 11
solver = Normal
Matrix Compiler1: 1.54 KB object code size  0.3/0.2/[0.1]
Matrix Compiler2: off  [0.2]/0.3/0.2

