Circuit: * D:\Facultate\Anul IV\Sem1.1\Surse\Proiect\Draft1.asc

Direct Newton iteration for .op point succeeded.

Date: Sun Nov 20 00:14:56 2022
Total elapsed time: 0.263 seconds.

tnom = 27
temp = 27
method = modified trap
totiter = 15638
traniter = 15628
tranpoints = 4933
accept = 3519
rejected = 1414
matrix size = 21
fillins = 10
solver = Normal
Matrix Compiler1: 2.02 KB object code size  0.3/0.2/[0.1]
Matrix Compiler2: 1.89 KB object code size  0.1/0.2/[0.1]

